12
frame 0
H      1.36499    1.69385   -0.19748
O      2.32877    1.56294   -0.04168
H      2.70244    1.31157   -0.91665
H      2.24604   -0.17323    0.48708
O      2.18417   -1.08418    0.83227
H      2.79153   -1.11373    1.60818
O      4.52933    2.57670    1.24186
H      4.16141    2.67035    2.12568
H      3.76633    2.39219    0.66562
O      3.36092    0.59470   -2.29371
H      3.77032   -0.19636   -1.85747
H      4.05289    1.00297   -2.81430
